36
TS generated by Auto-TS
 C         0.44051000000000     1.42276000000000     0.49490000000000
 C        -1.55665000000000     0.68949000000000    -0.23046000000000
 C        -1.55665000000000    -0.68949000000000    -0.23046000000000
 C         0.44052000000000    -1.42276000000000     0.49490000000000
 C         1.30957000000000    -0.70366000000000    -0.29208000000000
 C         1.30957000000000     0.70366000000000    -0.29208000000000
 H        -2.05862000000000    -1.23206000000000     0.56639000000000
 H         0.37869000000000    -2.50379000000000     0.39220000000000
 H         1.84689000000000    -1.21767000000000    -1.08762000000000
 H         1.84688000000000     1.21767000000000    -1.08762000000000
 H        -1.44805000000000    -1.23191000000000    -1.16356000000000
 H        -1.44805000000000     1.23191000000000    -1.16356000000000
 H         0.12049000000000    -1.04001000000000     1.45841000000000
 H         0.12049000000000     1.04001000000000     1.45841000000000
 C         0.35582389815321     2.90364347912388     0.35421312423705
 C        -0.24522080192495     3.46806334738258    -0.77870305757994
 C         0.87704056356987     3.73490394412707     1.35453857248608
 C        -0.32410984646438     4.85867983767685    -0.90960326106829
 C         0.19665132616196     5.68686360937559     0.08981082302284
 C         0.79689330173743     5.12522759267757     1.22125435285755
 H        -0.65109811897993     2.83407551453915    -1.55748756622578
 H        -0.78850824267569     5.29405745406748    -1.78497000554878
 H         0.13513236014076     6.76260935082361    -0.01239143466318
 H         1.19970071371723     5.76679384010830     1.99430741184625
 H         1.34357423168338     3.30834660184623     2.23408281364901
 C        -2.24477518158962     1.43327165981051     0.86190119877620
 C        -1.58775525000617     1.66107188016062     2.07835319672372
 C        -3.55031998401796     1.90647078456828     0.67495967695504
 C        -2.23496531396576     2.35958133036777     3.10323184748230
 C        -3.53805716715953     2.83117094152082     2.91491315246623
 C        -4.19533703046709     2.60471167366819     1.70141025300779
 H        -0.57853569162566     1.29935313711346     2.23268308206883
 H        -1.72691152071859     2.53522158168814     4.04265631058898
 H        -4.03792325665537     3.37146896564004     3.70843109341337
 H        -5.20381249843694     2.96997487307974     1.55638570798649
 H        -4.06674195938092     1.73552182177573    -0.26167669719577