36
TS generated by Auto-TS
 C         0.44051000000000     1.42276000000000     0.49490000000000
 C        -1.55665000000000     0.68949000000000    -0.23046000000000
 C        -1.55665000000000    -0.68949000000000    -0.23046000000000
 C         0.44052000000000    -1.42276000000000     0.49490000000000
 C         1.30957000000000    -0.70366000000000    -0.29208000000000
 C         1.30957000000000     0.70366000000000    -0.29208000000000
 H        -2.05862000000000    -1.23206000000000     0.56639000000000
 H         0.37869000000000    -2.50379000000000     0.39220000000000
 H         1.84689000000000    -1.21767000000000    -1.08762000000000
 H         1.84688000000000     1.21767000000000    -1.08762000000000
 H        -1.44805000000000    -1.23191000000000    -1.16356000000000
 H        -1.44805000000000     1.23191000000000    -1.16356000000000
 H         0.12049000000000    -1.04001000000000     1.45841000000000
 H         0.12049000000000     1.04001000000000     1.45841000000000
 C         0.35582389815321     2.90364347912388     0.35421312423705
 C        -0.53161779934398     3.47156033730669    -0.56949747434623
 C         1.16343865583826     3.73140740257370     1.14533704980388
 C        -0.61018532719856     4.86217299893518    -0.70063151487481
 C         0.19665441859841     5.68686404376759     0.08981353399039
 C         1.08297308575937     5.12173515511285     1.01228763397904
 H        -1.16013282959065     2.84029061827918    -1.18565466061687
 H        -1.29589176370738     5.30025273847482    -1.41433964943351
 H         0.13513427191570     6.76260976637761    -0.01238821129016
 H         1.70708819640276     5.76059939449588     1.62368350025893
 H         1.85261138302047     3.30213178699871     1.86225147976114
 C        -2.24477518158962     1.43327165981051     0.86190119877620
 C        -3.63765214761157     1.58399121874304     0.83951892273784
 C        -1.50043810020462     1.98352801622962     1.91380044627837
 C        -4.28256575171088     2.28258221029744     1.86578869110612
 C        -3.53805839842954     2.83114751439991     2.91492832821120
 C        -2.14774420569099     2.68167206836958     2.93887498150089
 H        -4.22195243708126     1.16237027339709     0.03080931492350
 H        -5.35852674984208     2.39866553703102     1.84792620653739
 H        -4.03793129289169     3.37144692937801     3.70844103539134
 H        -1.57221281715656     3.10648640078123     3.75113632909122
 H        -0.42332351566043     1.87248896768293     1.94020884191385