36
TS generated by Auto-TS
 C         0.44051000000000     1.42276000000000     0.49490000000000
 C        -1.55665000000000     0.68949000000000    -0.23046000000000
 C        -1.55665000000000    -0.68949000000000    -0.23046000000000
 C         0.44052000000000    -1.42276000000000     0.49490000000000
 C         1.30957000000000    -0.70366000000000    -0.29208000000000
 C         1.30957000000000     0.70366000000000    -0.29208000000000
 H        -2.05862000000000    -1.23206000000000     0.56639000000000
 H         0.37869000000000    -2.50379000000000     0.39220000000000
 H         1.84689000000000    -1.21767000000000    -1.08762000000000
 H         1.84688000000000     1.21767000000000    -1.08762000000000
 H        -1.44805000000000    -1.23191000000000    -1.16356000000000
 H        -1.44805000000000     1.23191000000000    -1.16356000000000
 H         0.12049000000000    -1.04001000000000     1.45841000000000
 H         0.12049000000000     1.04001000000000     1.45841000000000
 C         0.35582389815321     2.90364347912388     0.35421312423705
 C         1.52437383878061     3.66311730464234     0.20925058144735
 C        -0.89253537992390     3.53984958521685     0.36656945090941
 C         1.44350355846541     5.05351489469012     0.07723881283910
 C         0.19665825482719     5.68686185500308     0.08978818563824
 C        -0.97070388765205     4.93039018318097     0.23437775558345
 H         2.49411453342324     3.18075917196860     0.19848505324248
 H         2.34652087994104     5.63961680483652    -0.03470199579522
 H         0.13514475013059     6.76260837577878    -0.01240915620060
 H        -1.93530396536398     5.42123245217562     0.24400324499066
 H        -1.80163592747456     2.96166151956886     0.47809369529300
 C        -2.24477518158962     1.43327165981051     0.86190119877620
 C        -2.72366704912433     0.74656462731739     1.98547568448404
 C        -2.41440609021165     2.82096438146422     0.76784780697465
 C        -3.36960238198582     1.44609711843174     3.01046076112489
 C        -3.53804720030016     2.83116327737710     2.91492464948430
 C        -3.06068667336686     3.51818079215991     1.79419998775529
 H        -2.59747458285047    -0.32605544773700     2.06759703156270
 H        -3.73930310626672     0.91507277490848     3.87811334001339
 H        -4.03791781067267     3.37145876674817     3.70844146843088
 H        -3.19140951880178     4.59010337488050     1.72094968171482
 H        -2.04779493909851     3.36092636185953    -0.09658277179213