36
TS generated by Auto-TS
 C         0.44051000000000     1.42276000000000     0.49490000000000
 C        -1.55665000000000     0.68949000000000    -0.23046000000000
 C        -1.55665000000000    -0.68949000000000    -0.23046000000000
 C         0.44052000000000    -1.42276000000000     0.49490000000000
 C         1.30957000000000    -0.70366000000000    -0.29208000000000
 C         1.30957000000000     0.70366000000000    -0.29208000000000
 H        -2.05862000000000    -1.23206000000000     0.56639000000000
 H         0.37869000000000    -2.50379000000000     0.39220000000000
 H         1.84689000000000    -1.21767000000000    -1.08762000000000
 H         1.84688000000000     1.21767000000000    -1.08762000000000
 H        -1.44805000000000    -1.23191000000000    -1.16356000000000
 H        -1.44805000000000     1.23191000000000    -1.16356000000000
 H         0.12049000000000    -1.04001000000000     1.45841000000000
 H         0.12049000000000     1.04001000000000     1.45841000000000
 C         0.35582389815321     2.90364347912388     0.35421312423705
 C         0.90032263128069     3.53417044463197    -0.77241035749486
 C        -0.26849783613378     3.66879592913526     1.34823318225322
 C         0.82014955037320     4.92471258147194    -0.90332029015975
 C         0.19664858188654     5.68686221554700     0.08979780335957
 C        -0.34736748367435     5.05919273759686     1.21494999420375
 H         1.38495425515991     2.95157309524656    -1.54629329258600
 H         1.24094660526262     5.41117340895142    -1.77382139786978
 H         0.13513366042759     6.76260827741401    -0.01240351617936
 H        -0.82975189496536     5.64967569302768     1.98313438098150
 H        -0.69248140827397     3.19084799875859     2.22287974418776
 C        -2.24477518158962     1.43327165981051     0.86190119877620
 C        -2.02124081853504     2.80684808447514     1.02513044964539
 C        -3.11685147236275     0.76069052244067     1.72817444211555
 C        -2.66796817762774     3.50407132445801     2.05118894911253
 C        -3.53807162252712     2.83115889931464     2.91491224587018
 C        -3.76235911389481     1.46020500542963     2.75344878945503
 H        -1.34898740948794     3.33582625835154     0.36072114418156
 H        -2.49487789431615     4.56508909832054     2.17675771103574
 H        -4.03793815127755     3.37146162364361     3.70842670976966
 H        -4.43587608494258     0.94009212649060     3.42227580436426
 H        -3.29629946377777    -0.30096084151626     1.61028592831750