36
TS generated by Auto-TS
 C         0.44051000000000     1.42276000000000     0.49490000000000
 C        -1.55665000000000     0.68949000000000    -0.23046000000000
 C        -1.55665000000000    -0.68949000000000    -0.23046000000000
 C         0.44052000000000    -1.42276000000000     0.49490000000000
 C         1.30957000000000    -0.70366000000000    -0.29208000000000
 C         1.30957000000000     0.70366000000000    -0.29208000000000
 H        -2.05862000000000    -1.23206000000000     0.56639000000000
 H         0.37869000000000    -2.50379000000000     0.39220000000000
 H         1.84689000000000    -1.21767000000000    -1.08762000000000
 H         1.84688000000000     1.21767000000000    -1.08762000000000
 H        -1.44805000000000    -1.23191000000000    -1.16356000000000
 H        -1.44805000000000     1.23191000000000    -1.16356000000000
 H         0.12049000000000    -1.04001000000000     1.45841000000000
 H         0.12049000000000     1.04001000000000     1.45841000000000
 C         0.35582389815321     2.90364347912388     0.35421312423705
 C        -0.86398030226737     3.56028608125749     0.56450292403609
 C         1.49581237947766     3.64268310462241     0.01134511786934
 C        -0.94217261795141     4.95079951265461     0.43209851862532
 C         0.19666818188495     5.68686491117143     0.08981437959115
 C         1.41498209783130     5.03311030933977    -0.12043791765052
 H        -1.75087314616558     2.99798811042825     0.82987879905766
 H        -1.88470850828743     5.45744001525305     0.59466534536214
 H         0.13514594844485     6.76261087098215    -0.01238361277394
 H         2.29592865629605     5.60341432038099    -0.38531258446373
 H         2.44336139968523     3.14443477085485    -0.15328280838111
 C        -2.24477518158962     1.43327165981051     0.86190119877620
 C        -2.15706295838184     0.97864884140939     2.18437927159593
 C        -2.98100854897332     2.58888680616463     0.56894072760678
 C        -2.80363357659889     1.67792237217920     3.20914047915755
 C        -3.53804943467309     2.83116846712212     2.91491970829319
 C        -3.62665760740868     3.28636470332187     1.59551268846419
 H        -1.59040987447563     0.08643929196889     2.42112530004572
 H        -2.73550227536573     1.32623503635333     4.23049282786586
 H        -4.03791798277152     3.37146437123246     3.70843754396140
 H        -4.19521089002461     4.17895236326699     1.36856219355320
 H        -3.05486185476641     2.94843483877863    -0.45011462092285